LAMMPS (3 Mar 2020)

# Define temperature parameters
variable	temperature equal 300.0 			# Simulation temperature in Kelvin
variable	tempDamp equal 100.0 				# Relaxation time of themostat - 0.1 ps

# Define pressure parameters
variable	pressure equal 1.0 					# Pressure in bars
variable	pressureDamp equal 500.0 			# Relaxation time of the barostat 0.5 ps

# Define random seed
variable	seed equal 15674

# Simulation setup
units	real
atom_style full
variable	out_freq equal 100 					# Thermo output frequency
variable	out_freq2 equal 100 					# Dump output frequency
neigh_modify delay 10 every 1 				# Neighbor list setup
include in.nacl 									# Load initial configuration
### TIP4P/Ew and NaCl Potential Parameters ###
pair_style 	hybrid lj/cut/coul/long 5.0 buck/coul/long 5.0 # This cutoff is too short for a real calculation
# Load configuration
read_data       data.nacl
Reading data file ...
  orthogonal box = (0 0 0) to (15.5 15.5 15.5)
  reading atoms ...
  320 atoms
  scanning bonds ...
  scanning angles ...
  reading bonds ...
  212 bonds
  reading angles ...
  106 angles
Finding 1-2 1-3 1-4 neighbors ...

### create groups ###

group hy type 1
212 atoms in group hy
group ox type 2
106 atoms in group ox
group na type 3
1 atoms in group na
group cl type 4
1 atoms in group cl

### set charges - beside manually ###
set group ox charge -0.830
Setting atom values ...
  106 settings made for charge
set group hy charge 0.415
Setting atom values ...
  212 settings made for charge
set group na charge 1.0
Setting atom values ...
  1 settings made for charge
set group cl charge -1.0
Setting atom values ...
  1 settings made for charge

# Water TIP3P
pair_coeff      1 1 lj/cut/coul/long 0.0 0.0
pair_coeff      2 2 lj/cut/coul/long 0.102 3.188
pair_coeff      1 2 lj/cut/coul/long 0.0 0.0
# Mixed from Pettitt 86
pair_coeff      2 3 lj/cut/coul/long 0.1338549 2.72
pair_coeff      1 3 lj/cut/coul/long 0.1338549 1.31
pair_coeff      2 4 lj/cut/coul/long 0.359825 3.55
pair_coeff      1 4 lj/cut/coul/long 0.359825 2.14
# NaCl from Pettitt 86
pair_coeff	3 4 buck/coul/long 28929.93 0.317 161.2016
pair_coeff	3 3 buck/coul/long 9772.847 0.317 24.18024 # This is not used
pair_coeff	4 4 buck/coul/long 80312.94 0.317 1683.981 # This is not used
bond_style      harmonic
bond_coeff      1 450 0.9572
angle_style     harmonic
angle_coeff     1 55 104.52
kspace_style    pppm 1e-2 # This value is too large for a real calculation
timestep	2.0 										# Timestep 2 fs
thermo 100
thermo_style custom step temp pe ke etotal press lx ly lz xy xz yz
restart 100 restart restart2

# Perform minimization
minimize 1.0e-2 1.0e-3 100 1000
PPPM initialization ...
  G vector (1/distance) = 0.400236
  grid = 8 8 8
  stencil order = 5
  estimated absolute RMS force accuracy = 0.782336
  estimated relative force accuracy = 0.00235598
  3d grid and FFT values/proc = 3375 512
  update every 1 steps, delay 0 steps, check yes
Setting up cg style minimization ...
  Unit style    : real
  Current step  : 0
Step Temp PotEng KinEng TotEng Press Lx Ly Lz Xy Xz Yz
0            0    56622.859            0    56622.859    4161545.2         15.5         15.5         15.5            0            0            0
Loop time of 0.0369101 on 1 procs for 24 steps with 320 atoms

Minimization stats:
  Stopping criterion = energy tolerance
  Energy initial, next-to-last, final =
  Force two-norm initial, final = 610444 81.1302
  Force max component initial, final = 373098 22.0559
  Final line search alpha, max atom move = 0.0014802 0.0326472
  Iterations, force evaluations = 24 27

# Write trajectory to file
dump           	myDump all dcd 100 out.dcd
dump_modify    	myDump unwrap yes

# Start simulation
reset_timestep 	0

fix             1 all temp/csvr 300 300 100 15674
fix             2 all shake 0.0001 20 100000 t 1 2 # Shake algorithm
Finding SHAKE clusters ...
  find clusters CPU = 0.000164032 secs
fix             3 all nph iso 1 1 500
fix 				 4 all momentum 10000 linear 1 1 1 # Set total linear momentum to zero every 10000 steps

velocity        all create 300 15674 dist gaussian

run             500000 # 1 ns
PPPM initialization ...
  G vector (1/distance) = 0.400236
  grid = 8 8 8
  stencil order = 5
  estimated absolute RMS force accuracy = 0.782336
  estimated relative force accuracy = 0.00235598
  3d grid and FFT values/proc = 3375 512
  update every 1 steps, delay 10 steps, check yes
Setting up Verlet run ...
  Unit style    : real
  Current step  : 0
  Time step     : 2
SHAKE stats (type/ave/delta) on step 0
Step Temp PotEng KinEng TotEng Press Lx Ly Lz Xy Xz Yz
0          300    -1058.173    222.07035   -836.10269    913.91707         15.5         15.5         15.5            0            0            0
Averages over the last 2501 of 5001 rows, steps 250000 to 500000:
Temp PotEng KinEng TotEng Press Lx Ly Lz Xy Xz Yz
299.377 -1205.29 221.609 -983.681 28.0199 14.9908 14.9908 14.9908 0 0 0
Loop time of 668.075 on 1 procs for 500000 steps with 320 atoms

unfix           1
unfix           2
unfix           3
unfix           4

# Write final configuration
write_data	data.final
System init for write_data ...
PPPM initialization ...
  G vector (1/distance) = 0.409377
  grid = 8 8 8
  stencil order = 5
  estimated absolute RMS force accuracy = 0.69825
  estimated relative force accuracy = 0.00210276
  3d grid and FFT values/proc = 3375 512
  update every 1 steps, delay 10 steps, check yes
